aminopyrine
 OpenBabel10171914093D
@<TRIPOS>DICT
 32 33  0  0  0  0  0  0  0  0999 V2000
   -0.6535   -1.2495    0.8772 C   0  0  0  0  0  0  0  0  0  0  0  0
   -1.4968   -0.2013    0.5255 C   0  0  0  0  0  0  0  0  0  0  0  0
   -0.9582    0.9537   -0.0209 C   0  0  0  0  0  0  0  0  0  0  0  0
    0.4221    1.0448   -0.2408 C   0  0  0  0  0  0  0  0  0  0  0  0
    1.2973    0.0009    0.1025 C   0  0  0  0  0  0  0  0  0  0  0  0
    2.6942    0.1280   -0.1499 N   0  0  0  0  0  0  0  0  0  0  0  0
    0.7320   -1.1421    0.6788 C   0  0  0  0  0  0  0  0  0  0  0  0
    3.3958    1.3509   -0.2636 C   0  0  0  0  0  0  0  0  0  0  0  0
    2.9440    2.4883   -0.2463 O   0  0  0  0  0  0  0  0  0  0  0  0
    4.8788    1.0185   -0.3659 C   0  0  0  0  0  0  0  0  0  0  0  0
    5.9182    1.9224   -0.6087 N   0  0  0  0  0  0  0  0  0  0  0  0
    5.7699    3.3723   -0.5250 C   0  0  0  0  0  0  0  0  0  0  0  0
    7.3060    1.4946   -0.7603 C   0  0  0  0  0  0  0  0  0  0  0  0
    4.8774   -0.3161   -0.2348 C   0  0  0  0  0  0  0  0  0  0  0  0
    3.6476   -0.9091   -0.0259 N   0  3  0  0  0  0  0  0  0  0  0  0
    3.3824   -2.2560   -0.5145 C   0  0  0  0  0  0  0  0  0  0  0  0
   -1.0482   -2.1108    1.2862 H   0  0  0  0  0  0  0  0  0  0  0  0
   -2.5154   -0.2823    0.6700 H   0  0  0  0  0  0  0  0  0  0  0  0
   -1.5736    1.7453   -0.2653 H   0  0  0  0  0  0  0  0  0  0  0  0
    0.8067    1.9024   -0.6668 H   0  0  0  0  0  0  0  0  0  0  0  0
    1.3457   -1.9214    0.9635 H   0  0  0  0  0  0  0  0  0  0  0  0
    4.7345    3.6191   -0.4154 H   0  0  0  0  0  0  0  0  0  0  0  0
    6.1511    3.8219   -1.4179 H   0  0  0  0  0  0  0  0  0  0  0  0
    6.3152    3.7385    0.3196 H   0  0  0  0  0  0  0  0  0  0  0  0
    7.3460    0.4268   -0.8154 H   0  0  0  0  0  0  0  0  0  0  0  0
    7.8765    1.8301    0.0805 H   0  0  0  0  0  0  0  0  0  0  0  0
    7.7124    1.9136   -1.6571 H   0  0  0  0  0  0  0  0  0  0  0  0
    5.7469   -0.8694   -0.2870 H   0  0  0  0  0  0  0  0  0  0  0  0
    2.3829   -2.5384   -0.2574 H   0  0  0  0  0  0  0  0  0  0  0  0
    4.0727   -2.9401   -0.0667 H   0  0  0  0  0  0  0  0  0  0  0  0
    3.4971   -2.2786   -1.5781 H   0  0  0  0  0  0  0  0  0  0  0  0
    3.6564   -1.0699    1.0420 H   0  0  0  0  0  0  0  0  0  0  0  0
  1 17  1  0  0  0  0
  1  2  2  0  0  0  0
  1  7  1  0  0  0  0
  2  3  1  0  0  0  0
  2 18  1  0  0  0  0
  3 19  1  0  0  0  0
  3  4  2  0  0  0  0
  4  5  1  0  0  0  0
  4 20  1  0  0  0  0
  5  6  1  0  0  0  0
  5  7  2  0  0  0  0
  6  8  1  0  0  0  0
  6 15  1  0  0  0  0
  7 21  1  0  0  0  0
  8  9  2  0  0  0  0
  8 10  1  0  0  0  0
 10 14  2  0  0  0  0
 10 11  1  0  0  0  0
 11 12  1  0  0  0  0
 11 13  1  0  0  0  0
 12 22  1  0  0  0  0
 12 23  1  0  0  0  0
 12 24  1  0  0  0  0
 13 25  1  0  0  0  0
 13 26  1  0  0  0  0
 13 27  1  0  0  0  0
 14 15  1  0  0  0  0
 14 28  1  0  0  0  0
 15 16  1  0  0  0  0
 15 32  1  0  0  0  0
 16 29  1  0  0  0  0
 16 30  1  0  0  0  0
 16 31  1  0  0  0  0
M  CHG  1  15   1
M  END
