*****
 OpenBabel10181915123D

 32 33  0  0  0  0  0  0  0  0999 V2000
   -1.2304   -0.5676   -0.2364 C   0  0  0  0  0  0  0  0  0  0  0  0
   -0.1163   -1.3769   -0.0431 C   0  0  0  0  0  0  0  0  0  0  0  0
    1.1468   -0.8118    0.2087 C   0  0  0  0  0  0  0  0  0  0  0  0
    1.2832    0.5953    0.2991 C   0  0  0  0  0  0  0  0  0  0  0  0
    0.1716    1.4093   -0.0172 C   0  0  0  0  0  0  0  0  0  0  0  0
   -1.0842    0.8156   -0.2375 C   0  0  0  0  0  0  0  0  0  0  0  0
    0.1919    2.8982   -0.1102 C   0  0  0  0  0  0  0  0  0  0  0  0
   -0.7893    3.5259    0.2861 O   0  0  0  0  0  0  0  0  0  0  0  0
    1.3333    3.6661   -0.6806 C   0  0  0  0  0  0  0  0  0  0  0  0
    1.5101    4.9881   -0.2463 C   0  0  0  0  0  0  0  0  0  0  0  0
    2.6172    5.7291   -0.6645 C   0  0  0  0  0  0  0  0  0  0  0  0
    3.5479    5.1498   -1.5235 C   0  0  0  0  0  0  0  0  0  0  0  0
    3.3549    3.8559   -2.0065 C   0  0  0  0  0  0  0  0  0  0  0  0
    2.2317    3.1225   -1.6056 C   0  0  0  0  0  0  0  0  0  0  0  0
    5.0912    6.1196   -2.0227 Br  0  0  0  0  0  0  0  0  0  0  0  0
    2.5525    1.1045    0.6500 N   0  0  0  0  0  0  0  0  0  0  0  0
    2.3216   -1.7406    0.4538 C   0  0  0  0  0  0  0  0  0  0  0  0
    3.4981   -1.5616   -0.4905 C   0  0  0  0  0  0  0  0  0  0  0  0
    3.6013   -0.7152   -1.3699 O   0  0  0  0  0  0  0  0  0  0  0  0
    4.4943   -2.4492   -0.2488 O   0  0  0  0  0  0  0  0  0  0  0  0
   -2.2101   -1.0111   -0.3957 H   0  0  0  0  0  0  0  0  0  0  0  0
   -0.2466   -2.4567   -0.0702 H   0  0  0  0  0  0  0  0  0  0  0  0
   -1.9601    1.4392   -0.4110 H   0  0  0  0  0  0  0  0  0  0  0  0
    0.7913    5.4405    0.4356 H   0  0  0  0  0  0  0  0  0  0  0  0
    2.7472    6.7466   -0.3041 H   0  0  0  0  0  0  0  0  0  0  0  0
    4.0754    3.4041   -2.6848 H   0  0  0  0  0  0  0  0  0  0  0  0
    2.0974    2.1185   -2.0040 H   0  0  0  0  0  0  0  0  0  0  0  0
    3.2393    0.9045   -0.0854 H   0  0  0  0  0  0  0  0  0  0  0  0
    2.5719    2.0935    0.8798 H   0  0  0  0  0  0  0  0  0  0  0  0
    1.9895   -2.7834    0.3543 H   0  0  0  0  0  0  0  0  0  0  0  0
    2.6709   -1.5992    1.4840 H   0  0  0  0  0  0  0  0  0  0  0  0
    4.3182   -3.0509    0.4994 H   0  0  0  0  0  0  0  0  0  0  0  0
  1  2  2  0  0  0  0
  1  6  1  0  0  0  0
  1 21  1  0  0  0  0
  2  3  1  0  0  0  0
  2 22  1  0  0  0  0
  3  4  2  0  0  0  0
  3 17  1  0  0  0  0
  4  5  1  0  0  0  0
  4 16  1  0  0  0  0
  5  6  2  0  0  0  0
  5  7  1  0  0  0  0
  6 23  1  0  0  0  0
  7  8  2  0  0  0  0
  7  9  1  0  0  0  0
  9 10  2  0  0  0  0
  9 14  1  0  0  0  0
 10 11  1  0  0  0  0
 10 24  1  0  0  0  0
 11 12  2  0  0  0  0
 11 25  1  0  0  0  0
 12 13  1  0  0  0  0
 12 15  1  0  0  0  0
 13 14  2  0  0  0  0
 13 26  1  0  0  0  0
 14 27  1  0  0  0  0
 16 28  1  0  0  0  0
 16 29  1  0  0  0  0
 17 18  1  0  0  0  0
 17 30  1  0  0  0  0
 17 31  1  0  0  0  0
 18 19  2  0  0  0  0
 18 20  1  0  0  0  0
 20 32  1  0  0  0  0
M  END
