*****
 OpenBabel10181915123D

 30 31  0  0  0  0  0  0  0  0999 V2000
   -0.6304   -1.3996   -0.1376 C   0  0  0  0  0  0  0  0  0  0  0  0
   -1.3982   -0.2835   -0.4484 C   0  0  0  0  0  0  0  0  0  0  0  0
   -0.7967    0.9743   -0.5211 C   0  0  0  0  0  0  0  0  0  0  0  0
    0.5743    1.1411   -0.2760 C   0  0  0  0  0  0  0  0  0  0  0  0
    1.3661   -0.0078   -0.0798 C   0  0  0  0  0  0  0  0  0  0  0  0
    0.7479   -1.2700    0.0194 C   0  0  0  0  0  0  0  0  0  0  0  0
    2.8735    0.0644    0.0060 C   0  0  0  0  0  0  0  0  0  0  0  0
    3.5590    0.4850   -1.2774 C   0  0  0  0  0  0  0  0  0  0  0  0
    4.6255    1.0850   -1.2946 O   0  0  0  0  0  0  0  0  0  0  0  0
    2.9455    0.1100   -2.4252 O   0  0  0  0  0  0  0  0  0  0  0  0
    1.1335    2.4272   -0.1209 N   0  0  0  0  0  0  0  0  0  0  0  0
    0.5388    3.6377    0.3318 C   0  0  0  0  0  0  0  0  0  0  0  0
   -0.4744    3.7156    1.3137 C   0  0  0  0  0  0  0  0  0  0  0  0
   -1.1039    4.9330    1.6139 C   0  0  0  0  0  0  0  0  0  0  0  0
   -0.7026    6.1102    0.9924 C   0  0  0  0  0  0  0  0  0  0  0  0
    0.3434    6.0777    0.0747 C   0  0  0  0  0  0  0  0  0  0  0  0
    0.9496    4.8587   -0.2514 C   0  0  0  0  0  0  0  0  0  0  0  0
    2.2464    4.8944   -1.4011 Cl  0  0  0  0  0  0  0  0  0  0  0  0
   -0.9270    2.3808    2.3264 Cl  0  0  0  0  0  0  0  0  0  0  0  0
   -1.1067   -2.3679   -0.0159 H   0  0  0  0  0  0  0  0  0  0  0  0
   -2.4697   -0.3771   -0.5921 H   0  0  0  0  0  0  0  0  0  0  0  0
   -1.4252    1.8362   -0.7331 H   0  0  0  0  0  0  0  0  0  0  0  0
    1.3327   -2.1594    0.2488 H   0  0  0  0  0  0  0  0  0  0  0  0
    3.2941   -0.9099    0.2832 H   0  0  0  0  0  0  0  0  0  0  0  0
    3.1501    0.7715    0.7960 H   0  0  0  0  0  0  0  0  0  0  0  0
    2.0948   -0.3541   -2.2989 H   0  0  0  0  0  0  0  0  0  0  0  0
    1.9976    2.5879   -0.6339 H   0  0  0  0  0  0  0  0  0  0  0  0
   -1.8985    4.9663    2.3574 H   0  0  0  0  0  0  0  0  0  0  0  0
   -1.1866    7.0512    1.2418 H   0  0  0  0  0  0  0  0  0  0  0  0
    0.6838    7.0031   -0.3810 H   0  0  0  0  0  0  0  0  0  0  0  0
  1  2  2  0  0  0  0
  1  6  1  0  0  0  0
  1 20  1  0  0  0  0
  2  3  1  0  0  0  0
  2 21  1  0  0  0  0
  3  4  2  0  0  0  0
  3 22  1  0  0  0  0
  4  5  1  0  0  0  0
  4 11  1  0  0  0  0
  5  6  2  0  0  0  0
  5  7  1  0  0  0  0
  6 23  1  0  0  0  0
  7  8  1  0  0  0  0
  7 24  1  0  0  0  0
  7 25  1  0  0  0  0
  8  9  2  0  0  0  0
  8 10  1  0  0  0  0
 10 26  1  0  0  0  0
 11 12  1  0  0  0  0
 11 27  1  0  0  0  0
 12 13  2  0  0  0  0
 12 17  1  0  0  0  0
 13 14  1  0  0  0  0
 13 19  1  0  0  0  0
 14 15  2  0  0  0  0
 14 28  1  0  0  0  0
 15 16  1  0  0  0  0
 15 29  1  0  0  0  0
 16 17  2  0  0  0  0
 16 30  1  0  0  0  0
 17 18  1  0  0  0  0
M  END
