estradiol
 OpenBabel10171914293D
@<TRIPOS>DICT
 44 47  0  0  1  0  0  0  0  0999 V2000
    1.4578    0.1016    2.3020 O   0  0  0  0  0  0  0  0  0  0  0  0
    6.6557    9.0625    0.3472 O   0  0  0  0  0  0  0  0  0  0  0  0
    3.3526    1.7793    2.3934 C   0  0  1  0  0  0  0  0  0  0  0  0
    4.7183    1.6753    1.6446 C   0  0  2  0  0  0  0  0  0  0  0  0
    5.3266    3.0216    1.3510 C   0  0  1  0  0  0  0  0  0  0  0  0
    5.5050    3.9196    2.6062 C   0  0  2  0  0  0  0  0  0  0  0  0
    2.8293    0.3466    2.0572 C   0  0  2  0  0  0  0  0  0  0  0  0
    3.7914    2.2744    3.7927 C   0  0  0  0  0  0  0  0  0  0  0  0
    4.5232    0.7817    0.4155 C   0  0  0  0  0  0  0  0  0  0  0  0
    4.3629    3.7444    3.6627 C   0  0  0  0  0  0  0  0  0  0  0  0
    3.0866    0.3202    0.5269 C   0  0  0  0  0  0  0  0  0  0  0  0
    6.7152    2.9151    0.7079 C   0  0  0  0  0  0  0  0  0  0  0  0
    2.2556    2.7945    1.9355 C   0  0  0  0  0  0  0  0  0  0  0  0
    5.8397    5.3237    2.0504 C   0  0  0  0  0  0  0  0  0  0  0  0
    6.9698    4.2248   -0.0089 C   0  0  0  0  0  0  0  0  0  0  0  0
    6.5554    5.4245    0.8207 C   0  0  0  0  0  0  0  0  0  0  0  0
    5.4907    6.5069    2.7038 C   0  0  0  0  0  0  0  0  0  0  0  0
    6.8286    6.6795    0.2498 C   0  0  0  0  0  0  0  0  0  0  0  0
    5.7845    7.7583    2.1228 C   0  0  0  0  0  0  0  0  0  0  0  0
    6.4235    7.8251    0.8897 C   0  0  0  0  0  0  0  0  0  0  0  0
    1.2921    0.1171    3.2576 H   0  0  0  0  0  0  0  0  0  0  0  0
    7.0845    9.1373   -0.4826 H   0  0  0  0  0  0  0  0  0  0  0  0
    5.4489    1.2148    2.2764 H   0  0  0  0  0  0  0  0  0  0  0  0
    4.6192    3.4639    0.6810 H   0  0  0  0  0  0  0  0  0  0  0  0
    6.3172    3.6379    3.2433 H   0  0  0  0  0  0  0  0  0  0  0  0
    3.3062   -0.3933    2.6655 H   0  0  0  0  0  0  0  0  0  0  0  0
    4.5501    1.6273    4.1806 H   0  0  0  0  0  0  0  0  0  0  0  0
    2.9528    2.2698    4.4574 H   0  0  0  0  0  0  0  0  0  0  0  0
    5.1939   -0.0517    0.4401 H   0  0  0  0  0  0  0  0  0  0  0  0
    4.7227    1.2931   -0.5029 H   0  0  0  0  0  0  0  0  0  0  0  0
    3.5557    4.3913    3.3891 H   0  0  0  0  0  0  0  0  0  0  0  0
    4.7951    3.9821    4.6122 H   0  0  0  0  0  0  0  0  0  0  0  0
    2.4270    0.9890    0.0145 H   0  0  0  0  0  0  0  0  0  0  0  0
    2.9169   -0.6404    0.0872 H   0  0  0  0  0  0  0  0  0  0  0  0
    6.7365    2.1038    0.0106 H   0  0  0  0  0  0  0  0  0  0  0  0
    7.4665    2.7308    1.4471 H   0  0  0  0  0  0  0  0  0  0  0  0
    1.8970    2.5189    0.9658 H   0  0  0  0  0  0  0  0  0  0  0  0
    2.6748    3.7781    1.8945 H   0  0  0  0  0  0  0  0  0  0  0  0
    1.4442    2.7815    2.6329 H   0  0  0  0  0  0  0  0  0  0  0  0
    6.4142    4.2304   -0.9234 H   0  0  0  0  0  0  0  0  0  0  0  0
    8.0216    4.2998   -0.1905 H   0  0  0  0  0  0  0  0  0  0  0  0
    5.0144    6.4658    3.6184 H   0  0  0  0  0  0  0  0  0  0  0  0
    7.3327    6.7399   -0.6486 H   0  0  0  0  0  0  0  0  0  0  0  0
    5.5242    8.6274    2.6147 H   0  0  0  0  0  0  0  0  0  0  0  0
  1  7  1  0  0  0  0
  1 21  1  0  0  0  0
  2 20  1  0  0  0  0
  2 22  1  0  0  0  0
  3  7  1  1  0  0  0
  3  8  1  0  0  0  0
  3 13  1  0  0  0  0
  4  3  1  1  0  0  0
  4 23  1  0  0  0  0
  4  9  1  0  0  0  0
  5  4  1  1  0  0  0
  5 12  1  0  0  0  0
  5 24  1  0  0  0  0
  6  5  1  6  0  0  0
  6 10  1  0  0  0  0
  6 14  1  0  0  0  0
  6 25  1  0  0  0  0
  7 26  1  1  0  0  0
  7 11  1  0  0  0  0
  8 27  1  0  0  0  0
  8 10  1  0  0  0  0
  8 28  1  0  0  0  0
  9 29  1  0  0  0  0
  9 30  1  0  0  0  0
  9 11  1  0  0  0  0
 10 32  1  0  0  0  0
 10 31  1  0  0  0  0
 11 33  1  0  0  0  0
 11 34  1  0  0  0  0
 12 15  1  0  0  0  0
 12 35  1  0  0  0  0
 12 36  1  0  0  0  0
 13 38  1  0  0  0  0
 13 39  1  0  0  0  0
 13 37  1  0  0  0  0
 14 16  2  0  0  0  0
 14 17  1  0  0  0  0
 15 16  1  0  0  0  0
 15 40  1  0  0  0  0
 15 41  1  0  0  0  0
 16 18  1  0  0  0  0
 17 42  1  0  0  0  0
 17 19  2  0  0  0  0
 18 20  2  0  0  0  0
 18 43  1  0  0  0  0
 19 20  1  0  0  0  0
 19 44  1  0  0  0  0
M  END
