*****
 OpenBabel10181915123D

 47 50  0  0  1  0  0  0  0  0999 V2000
    2.2899    0.7039    2.2806 C   0  0  0  0  0  0  0  0  0  0  0  0
    3.0566    0.5203    1.0313 C   0  0  0  0  0  0  0  0  0  0  0  0
    3.4834    1.3063   -0.0230 C   0  0  0  0  0  0  0  0  0  0  0  0
    4.3581    0.4405   -0.7814 C   0  0  0  0  0  0  0  0  0  0  0  0
    4.2622   -0.8027   -0.2788 N   0  0  0  0  0  0  0  0  0  0  0  0
    3.5187   -0.7360    0.8586 O   0  0  0  0  0  0  0  0  0  0  0  0
    5.2386    0.6443   -1.9459 C   0  0  0  0  0  0  0  0  0  0  0  0
    4.8713    1.4931   -2.9947 C   0  0  0  0  0  0  0  0  0  0  0  0
    5.6798    1.6752   -4.1291 C   0  0  0  0  0  0  0  0  0  0  0  0
    6.8760    0.9808   -4.2680 C   0  0  0  0  0  0  0  0  0  0  0  0
    7.2610    0.1035   -3.2614 C   0  0  0  0  0  0  0  0  0  0  0  0
    6.4635   -0.0606   -2.1101 C   0  0  0  0  0  0  0  0  0  0  0  0
    7.1177   -1.1746   -0.9488 Cl  0  0  0  0  0  0  0  0  0  0  0  0
    3.6894    2.1262   -2.9773 F   0  0  0  0  0  0  0  0  0  0  0  0
    3.1421    2.7204   -0.1949 C   0  0  0  0  0  0  0  0  0  0  0  0
    3.9233    3.5385   -0.6655 O   0  0  0  0  0  0  0  0  0  0  0  0
    1.8529    3.0754    0.1921 N   0  0  0  0  0  0  0  0  0  0  0  0
    1.3296    4.4759    0.0887 C   0  0  1  0  0  0  0  0  0  0  0  0
    1.5876    5.1883   -1.2537 C   0  0  1  0  0  0  0  0  0  0  0  0
    0.1895    5.6415   -1.1630 N   0  0  0  0  0  0  0  0  0  0  0  0
   -0.2020    4.5754   -0.4562 C   0  0  0  0  0  0  0  0  0  0  0  0
   -1.2745    4.0521   -0.3144 O   0  0  0  0  0  0  0  0  0  0  0  0
   -0.2897    6.7046   -2.0649 C   0  0  2  0  0  0  0  0  0  0  0  0
    0.9929    7.1092   -2.8449 C   0  0  0  0  0  0  0  0  0  0  0  0
    2.3583    6.7815   -1.5572 S   0  0  0  0  0  0  0  0  0  0  0  0
    1.1765    6.1417   -4.0400 C   0  0  0  0  0  0  0  0  0  0  0  0
    1.1074    8.5318   -3.3882 C   0  0  0  0  0  0  0  0  0  0  0  0
   -0.9040    7.9002   -1.3104 C   0  0  0  0  0  0  0  0  0  0  0  0
   -1.4178    8.8644   -1.8647 O   0  0  0  0  0  0  0  0  0  0  0  0
   -0.8276    7.8282    0.0389 O   0  0  0  0  0  0  0  0  0  0  0  0
    1.9088    1.7183    2.4080 H   0  0  0  0  0  0  0  0  0  0  0  0
    2.9256    0.4849    3.1449 H   0  0  0  0  0  0  0  0  0  0  0  0
    1.4406    0.0141    2.3007 H   0  0  0  0  0  0  0  0  0  0  0  0
    5.3548    2.3536   -4.9140 H   0  0  0  0  0  0  0  0  0  0  0  0
    7.4979    1.1109   -5.1494 H   0  0  0  0  0  0  0  0  0  0  0  0
    8.1873   -0.4597   -3.3734 H   0  0  0  0  0  0  0  0  0  0  0  0
    1.2038    2.3345    0.4298 H   0  0  0  0  0  0  0  0  0  0  0  0
    1.4804    5.0440    1.0135 H   0  0  0  0  0  0  0  0  0  0  0  0
    1.7609    4.4670   -2.0581 H   0  0  0  0  0  0  0  0  0  0  0  0
   -1.0825    6.2913   -2.6969 H   0  0  0  0  0  0  0  0  0  0  0  0
    0.8923    5.1101   -3.8067 H   0  0  0  0  0  0  0  0  0  0  0  0
    2.2107    6.1333   -4.3999 H   0  0  0  0  0  0  0  0  0  0  0  0
    0.5276    6.4333   -4.8730 H   0  0  0  0  0  0  0  0  0  0  0  0
    1.0842    9.2979   -2.6087 H   0  0  0  0  0  0  0  0  0  0  0  0
    0.2931    8.7379   -4.0939 H   0  0  0  0  0  0  0  0  0  0  0  0
    2.0451    8.6589   -3.9447 H   0  0  0  0  0  0  0  0  0  0  0  0
   -0.3783    7.0116    0.3206 H   0  0  0  0  0  0  0  0  0  0  0  0
  1  2  1  0  0  0  0
  1 31  1  0  0  0  0
  1 32  1  0  0  0  0
  1 33  1  0  0  0  0
  2  3  2  0  0  0  0
  2  6  1  0  0  0  0
  3  4  1  0  0  0  0
  3 15  1  0  0  0  0
  4  5  2  0  0  0  0
  4  7  1  0  0  0  0
  5  6  1  0  0  0  0
  7  8  2  0  0  0  0
  7 12  1  0  0  0  0
  8  9  1  0  0  0  0
  8 14  1  0  0  0  0
  9 10  2  0  0  0  0
  9 34  1  0  0  0  0
 10 11  1  0  0  0  0
 10 35  1  0  0  0  0
 11 12  2  0  0  0  0
 11 36  1  0  0  0  0
 12 13  1  0  0  0  0
 15 16  2  0  0  0  0
 15 17  1  0  0  0  0
 17 18  1  0  0  0  0
 17 37  1  0  0  0  0
 18 19  1  6  0  0  0
 18 21  1  0  0  0  0
 18 38  1  0  0  0  0
 19 20  1  0  0  0  0
 19 25  1  0  0  0  0
 19 39  1  6  0  0  0
 20 21  1  0  0  0  0
 20 23  1  0  0  0  0
 21 22  2  0  0  0  0
 23 24  1  0  0  0  0
 23 28  1  0  0  0  0
 23 40  1  6  0  0  0
 24 25  1  0  0  0  0
 24 26  1  0  0  0  0
 24 27  1  0  0  0  0
 26 41  1  0  0  0  0
 26 42  1  0  0  0  0
 26 43  1  0  0  0  0
 27 44  1  0  0  0  0
 27 45  1  0  0  0  0
 27 46  1  0  0  0  0
 28 29  2  0  0  0  0
 28 30  1  0  0  0  0
 30 47  1  0  0  0  0
M  END
