lumiracoxib
 OpenBabel10181908563D
@<TRIPOS>DICT
 33 34  0  0  0  0  0  0  0  0999 V2000
   -3.9106   -2.0173   -0.1952 C   0  0  0  0  0  0  0  0  0  0  0  0
   -4.7286   -1.2982   -0.2682 H   0  0  0  0  0  0  0  0  0  0  0  0
   -3.9722   -2.5698    0.7426 H   0  0  0  0  0  0  0  0  0  0  0  0
   -3.9471   -2.7036   -1.0433 H   0  0  0  0  0  0  0  0  0  0  0  0
   -2.5910   -1.2736   -0.2191 C   0  0  0  0  0  0  0  0  0  0  0  0
   -2.5116    0.0346    0.2612 C   0  0  0  0  0  0  0  0  0  0  0  0
   -3.3929    0.4874    0.6350 H   0  0  0  0  0  0  0  0  0  0  0  0
   -1.3028    0.7392    0.2603 C   0  0  0  0  0  0  0  0  0  0  0  0
   -0.1510    0.0759   -0.2024 C   0  0  0  0  0  0  0  0  0  0  0  0
   -0.2267   -1.2319   -0.6985 C   0  0  0  0  0  0  0  0  0  0  0  0
    0.6377   -1.7175   -1.0726 H   0  0  0  0  0  0  0  0  0  0  0  0
   -1.4428   -1.8996   -0.7001 C   0  0  0  0  0  0  0  0  0  0  0  0
   -1.4951   -2.8928   -1.0666 H   0  0  0  0  0  0  0  0  0  0  0  0
    1.1009    0.7412   -0.1689 N   0  0  0  0  0  0  0  0  0  0  0  0
    1.0886    1.7695   -0.2682 H   0  0  0  0  0  0  0  0  0  0  0  0
    2.3734    0.1052   -0.0827 C   0  0  0  0  0  0  0  0  0  0  0  0
    2.6261   -0.9305    0.8226 C   0  0  0  0  0  0  0  0  0  0  0  0
    3.8674   -1.5527    0.8986 C   0  0  0  0  0  0  0  0  0  0  0  0
    4.0346   -2.3401    1.5871 H   0  0  0  0  0  0  0  0  0  0  0  0
    4.8928   -1.1186    0.0625 C   0  0  0  0  0  0  0  0  0  0  0  0
    5.8452   -1.5808    0.1149 H   0  0  0  0  0  0  0  0  0  0  0  0
    4.6742   -0.0727   -0.8351 C   0  0  0  0  0  0  0  0  0  0  0  0
    5.4633    0.2564   -1.4617 H   0  0  0  0  0  0  0  0  0  0  0  0
    3.4207    0.5442   -0.9123 C   0  0  0  0  0  0  0  0  0  0  0  0
    3.1800    1.8401   -2.0378 Cl  0  0  0  0  0  0  0  0  0  0  0  0
    1.6658   -1.3463    1.6775 F   0  0  0  0  0  0  0  0  0  0  0  0
   -1.1953    2.1767    0.7911 C   0  0  0  0  0  0  0  0  0  0  0  0
   -0.5136    2.7371    0.1649 H   0  0  0  0  0  0  0  0  0  0  0  0
   -0.8755    2.1330    1.8254 H   0  0  0  0  0  0  0  0  0  0  0  0
   -2.5444    2.8700    0.7121 C   0  0  0  0  0  0  0  0  0  0  0  0
   -3.2704    3.0450    1.6887 O   0  0  0  0  0  0  0  0  0  0  0  0
   -2.9681    3.2846   -0.5169 O   0  0  0  0  0  0  0  0  0  0  0  0
   -3.8309    3.7058   -0.4948 H   0  0  0  0  0  0  0  0  0  0  0  0
  1  2  1  0  0  0  0
  1  4  1  0  0  0  0
  1  5  1  0  0  0  0
  1  3  1  0  0  0  0
  5  6  2  0  0  0  0
  5 12  1  0  0  0  0
  6  7  1  0  0  0  0
  6  8  1  0  0  0  0
  8  9  2  0  0  0  0
  8 27  1  0  0  0  0
  9 14  1  0  0  0  0
  9 10  1  0  0  0  0
 10 11  1  0  0  0  0
 10 12  2  0  0  0  0
 12 13  1  0  0  0  0
 14 15  1  0  0  0  0
 14 16  1  0  0  0  0
 16 17  2  0  0  0  0
 16 24  1  0  0  0  0
 17 26  1  0  0  0  0
 17 18  1  0  0  0  0
 18 19  1  0  0  0  0
 18 20  2  0  0  0  0
 20 21  1  0  0  0  0
 20 22  1  0  0  0  0
 22 23  1  0  0  0  0
 22 24  2  0  0  0  0
 24 25  1  0  0  0  0
 27 30  1  0  0  0  0
 27 28  1  0  0  0  0
 27 29  1  0  0  0  0
 30 32  1  0  0  0  0
 30 31  2  0  0  0  0
 32 33  1  0  0  0  0
M  END
