*****
 OpenBabel10181915123D

 33 34  0  0  0  0  0  0  0  0999 V2000
    0.9738   -0.0289    0.0785 C   0  0  0  0  0  0  0  0  0  0  0  0
    2.4700    0.0460   -0.0038 C   0  0  0  0  0  0  0  0  0  0  0  0
    3.1235    1.2607   -0.2317 C   0  0  0  0  0  0  0  0  0  0  0  0
    4.5252    1.3214   -0.3874 C   0  0  0  0  0  0  0  0  0  0  0  0
    5.2906    0.1379   -0.3283 C   0  0  0  0  0  0  0  0  0  0  0  0
    4.6214   -1.0672   -0.0590 C   0  0  0  0  0  0  0  0  0  0  0  0
    3.2335   -1.1150    0.1050 C   0  0  0  0  0  0  0  0  0  0  0  0
    6.6977    0.1805   -0.5244 N   0  0  0  0  0  0  0  0  0  0  0  0
    7.6270   -0.8324   -0.1713 C   0  0  0  0  0  0  0  0  0  0  0  0
    7.6502   -1.3636    1.1234 C   0  0  0  0  0  0  0  0  0  0  0  0
    8.4789   -2.4297    1.4714 C   0  0  0  0  0  0  0  0  0  0  0  0
    9.3069   -3.0036    0.5156 C   0  0  0  0  0  0  0  0  0  0  0  0
    9.3266   -2.4836   -0.7817 C   0  0  0  0  0  0  0  0  0  0  0  0
    8.4999   -1.4039   -1.1161 C   0  0  0  0  0  0  0  0  0  0  0  0
    8.5591   -0.8051   -2.7381 Cl  0  0  0  0  0  0  0  0  0  0  0  0
    6.8710   -0.8393    2.0840 F   0  0  0  0  0  0  0  0  0  0  0  0
    5.1710    2.6796   -0.5698 C   0  0  0  0  0  0  0  0  0  0  0  0
    5.8669    2.9005   -1.8902 C   0  0  0  0  0  0  0  0  0  0  0  0
    6.8126    3.6655   -2.0272 O   0  0  0  0  0  0  0  0  0  0  0  0
    5.3448    2.2391   -2.9464 O   0  0  0  0  0  0  0  0  0  0  0  0
    0.5251    0.9669    0.1592 H   0  0  0  0  0  0  0  0  0  0  0  0
    0.6596   -0.6077    0.9530 H   0  0  0  0  0  0  0  0  0  0  0  0
    0.5814   -0.5055   -0.8259 H   0  0  0  0  0  0  0  0  0  0  0  0
    2.5339    2.1760   -0.2733 H   0  0  0  0  0  0  0  0  0  0  0  0
    5.1694   -2.0024    0.0184 H   0  0  0  0  0  0  0  0  0  0  0  0
    2.7564   -2.0713    0.3105 H   0  0  0  0  0  0  0  0  0  0  0  0
    6.9561    0.6130   -1.4122 H   0  0  0  0  0  0  0  0  0  0  0  0
    8.4573   -2.8091    2.4888 H   0  0  0  0  0  0  0  0  0  0  0  0
    9.9412   -3.8495    0.7765 H   0  0  0  0  0  0  0  0  0  0  0  0
    9.9789   -2.9317   -1.5253 H   0  0  0  0  0  0  0  0  0  0  0  0
    5.9024    2.8167    0.2357 H   0  0  0  0  0  0  0  0  0  0  0  0
    4.4248    3.4766   -0.4631 H   0  0  0  0  0  0  0  0  0  0  0  0
    4.5779    1.6724   -2.7297 H   0  0  0  0  0  0  0  0  0  0  0  0
  1  2  1  0  0  0  0
  1 21  1  0  0  0  0
  1 22  1  0  0  0  0
  1 23  1  0  0  0  0
  2  3  2  0  0  0  0
  2  7  1  0  0  0  0
  3  4  1  0  0  0  0
  3 24  1  0  0  0  0
  4  5  2  0  0  0  0
  4 17  1  0  0  0  0
  5  6  1  0  0  0  0
  5  8  1  0  0  0  0
  6  7  2  0  0  0  0
  6 25  1  0  0  0  0
  7 26  1  0  0  0  0
  8  9  1  0  0  0  0
  8 27  1  0  0  0  0
  9 10  2  0  0  0  0
  9 14  1  0  0  0  0
 10 11  1  0  0  0  0
 10 16  1  0  0  0  0
 11 12  2  0  0  0  0
 11 28  1  0  0  0  0
 12 13  1  0  0  0  0
 12 29  1  0  0  0  0
 13 14  2  0  0  0  0
 13 30  1  0  0  0  0
 14 15  1  0  0  0  0
 17 18  1  0  0  0  0
 17 31  1  0  0  0  0
 17 32  1  0  0  0  0
 18 19  2  0  0  0  0
 18 20  1  0  0  0  0
 20 33  1  0  0  0  0
M  END
