pioglitazone
 OpenBabel10181914253D
@<TRIPOS>DICT
 45 47  0  0  1  0  0  0  0  0999 V2000
    8.4602    0.0393    0.6411 C   0  0  0  0  0  0  0  0  0  0  0  0
    9.4995    0.3618    0.6239 H   0  0  0  0  0  0  0  0  0  0  0  0
    8.4089   -1.0049    0.3305 H   0  0  0  0  0  0  0  0  0  0  0  0
    8.0811    0.1337    1.6594 H   0  0  0  0  0  0  0  0  0  0  0  0
    7.6411    0.9199   -0.3095 C   0  0  0  0  0  0  0  0  0  0  0  0
    8.0292    0.8410   -1.3258 H   0  0  0  0  0  0  0  0  0  0  0  0
    7.6851    1.9623    0.0144 H   0  0  0  0  0  0  0  0  0  0  0  0
    6.2195    0.3998   -0.2456 C   0  0  0  0  0  0  0  0  0  0  0  0
    5.8354   -0.7151   -0.9866 C   0  0  0  0  0  0  0  0  0  0  0  0
    6.5299   -1.1961   -1.6249 H   0  0  0  0  0  0  0  0  0  0  0  0
    4.6057   -1.2227   -0.9103 N   0  0  0  0  0  0  0  0  0  0  0  0
    3.6904   -0.6647   -0.1135 C   0  0  0  0  0  0  0  0  0  0  0  0
    4.0057    0.4633    0.6496 C   0  0  0  0  0  0  0  0  0  0  0  0
    3.2888    0.9065    1.2888 H   0  0  0  0  0  0  0  0  0  0  0  0
    5.2813    1.0050    0.5783 C   0  0  0  0  0  0  0  0  0  0  0  0
    5.5352    1.8590    1.1530 H   0  0  0  0  0  0  0  0  0  0  0  0
    2.3354   -1.3601   -0.0599 C   0  0  0  0  0  0  0  0  0  0  0  0
    2.3434   -2.1032    0.7383 H   0  0  0  0  0  0  0  0  0  0  0  0
    2.1555   -1.8674   -1.0102 H   0  0  0  0  0  0  0  0  0  0  0  0
    1.2039   -0.3519    0.1929 C   0  0  0  0  0  0  0  0  0  0  0  0
    1.2559    0.4702   -0.5224 H   0  0  0  0  0  0  0  0  0  0  0  0
    1.2422    0.0226    1.2164 H   0  0  0  0  0  0  0  0  0  0  0  0
   -0.0124   -1.1123   -0.0096 O   0  0  0  0  0  0  0  0  0  0  0  0
   -1.2933   -0.6036   -0.0284 C   0  0  0  0  0  0  0  0  0  0  0  0
   -2.3066   -1.4470   -0.4750 C   0  0  0  0  0  0  0  0  0  0  0  0
   -2.0809   -2.4373   -0.7773 H   0  0  0  0  0  0  0  0  0  0  0  0
   -3.6163   -0.9817   -0.5322 C   0  0  0  0  0  0  0  0  0  0  0  0
   -4.3680   -1.6365   -0.8857 H   0  0  0  0  0  0  0  0  0  0  0  0
   -3.9277    0.3260   -0.1366 C   0  0  0  0  0  0  0  0  0  0  0  0
   -2.8959    1.1553    0.3166 C   0  0  0  0  0  0  0  0  0  0  0  0
   -3.1138    2.1485    0.6165 H   0  0  0  0  0  0  0  0  0  0  0  0
   -1.5812    0.7012    0.3733 C   0  0  0  0  0  0  0  0  0  0  0  0
   -0.8141    1.3455    0.7170 H   0  0  0  0  0  0  0  0  0  0  0  0
   -5.3322    0.9320   -0.2006 C   0  0  0  0  0  0  0  0  0  0  0  0
   -5.3045    1.7293   -0.9449 H   0  0  0  0  0  0  0  0  0  0  0  0
   -5.5849    1.3744    0.7641 H   0  0  0  0  0  0  0  0  0  0  0  0
   -6.4305   -0.0773   -0.6146 C   0  0  2  0  0  0  0  0  0  0  0  0
   -6.1770   -0.6534   -1.4934 H   0  0  0  0  0  0  0  0  0  0  0  0
   -7.7439    0.6635   -0.8032 C   0  0  0  0  0  0  0  0  0  0  0  0
   -7.9615    1.4929   -1.6638 O   0  0  0  0  0  0  0  0  0  0  0  0
   -8.7311    0.3131    0.0808 N   0  0  0  0  0  0  0  0  0  0  0  0
   -9.6707    0.7408    0.0436 H   0  0  0  0  0  0  0  0  0  0  0  0
   -8.4037   -0.6485    1.0101 C   0  0  0  0  0  0  0  0  0  0  0  0
   -9.2113   -1.0519    1.8486 O   0  0  0  0  0  0  0  0  0  0  0  0
   -6.7718   -1.1712    0.8169 S   0  0  0  0  0  0  0  0  0  0  0  0
  1  3  1  0  0  0  0
  1  2  1  0  0  0  0
  1  4  1  0  0  0  0
  1  5  1  0  0  0  0
  5  6  1  0  0  0  0
  5  7  1  0  0  0  0
  5  8  1  0  0  0  0
  8 15  2  0  0  0  0
  8  9  1  0  0  0  0
  9 10  1  0  0  0  0
  9 11  2  0  0  0  0
 11 12  1  0  0  0  0
 12 13  2  0  0  0  0
 12 17  1  0  0  0  0
 13 15  1  0  0  0  0
 13 14  1  0  0  0  0
 15 16  1  0  0  0  0
 17 18  1  0  0  0  0
 17 19  1  0  0  0  0
 17 20  1  0  0  0  0
 20 23  1  0  0  0  0
 20 21  1  0  0  0  0
 20 22  1  0  0  0  0
 23 24  1  0  0  0  0
 24 32  2  0  0  0  0
 24 25  1  0  0  0  0
 25 26  1  0  0  0  0
 25 27  2  0  0  0  0
 27 28  1  0  0  0  0
 27 29  1  0  0  0  0
 29 30  2  0  0  0  0
 29 34  1  0  0  0  0
 30 32  1  0  0  0  0
 30 31  1  0  0  0  0
 32 33  1  0  0  0  0
 34 37  1  0  0  0  0
 34 35  1  0  0  0  0
 34 36  1  0  0  0  0
 37 38  1  6  0  0  0
 37 45  1  0  0  0  0
 37 39  1  0  0  0  0
 39 40  2  0  0  0  0
 39 41  1  0  0  0  0
 41 42  1  0  0  0  0
 41 43  1  0  0  0  0
 43 45  1  0  0  0  0
 43 44  2  0  0  0  0
M  END
