tolcapone
 OpenBabel10181908563D
@<TRIPOS>DICT
 31 32  0  0  0  0  0  0  0  0999 V2000
    5.0888    1.2933    0.1263 C   0  0  0  0  0  0  0  0  0  0  0  0
    5.9005    0.5701    0.2036 H   0  0  0  0  0  0  0  0  0  0  0  0
    5.0398    1.9062    1.0265 H   0  0  0  0  0  0  0  0  0  0  0  0
    5.2362    1.9207   -0.7525 H   0  0  0  0  0  0  0  0  0  0  0  0
    3.7775    0.5484   -0.0101 C   0  0  0  0  0  0  0  0  0  0  0  0
    3.5709   -0.6408    0.6879 C   0  0  0  0  0  0  0  0  0  0  0  0
    4.3356   -1.0310    1.3082 H   0  0  0  0  0  0  0  0  0  0  0  0
    2.3642   -1.3204    0.5784 C   0  0  0  0  0  0  0  0  0  0  0  0
    2.2229   -2.2236    1.1147 H   0  0  0  0  0  0  0  0  0  0  0  0
    1.3343   -0.8165   -0.2250 C   0  0  0  0  0  0  0  0  0  0  0  0
    1.5482    0.3752   -0.9279 C   0  0  0  0  0  0  0  0  0  0  0  0
    0.7842    0.7678   -1.5484 H   0  0  0  0  0  0  0  0  0  0  0  0
    2.7572    1.0514   -0.8172 C   0  0  0  0  0  0  0  0  0  0  0  0
    2.8990    1.9569   -1.3489 H   0  0  0  0  0  0  0  0  0  0  0  0
    0.0631   -1.5265   -0.3212 C   0  0  0  0  0  0  0  0  0  0  0  0
    0.0884   -2.7266   -0.5464 O   0  0  0  0  0  0  0  0  0  0  0  0
   -1.2230   -0.8526   -0.1399 C   0  0  0  0  0  0  0  0  0  0  0  0
   -2.4065   -1.4535   -0.6005 C   0  0  0  0  0  0  0  0  0  0  0  0
   -2.3766   -2.3885   -1.1001 H   0  0  0  0  0  0  0  0  0  0  0  0
   -3.6249   -0.8128   -0.3940 C   0  0  0  0  0  0  0  0  0  0  0  0
   -3.7118    0.4236    0.2502 C   0  0  0  0  0  0  0  0  0  0  0  0
   -2.5335    1.0213    0.7049 C   0  0  0  0  0  0  0  0  0  0  0  0
   -1.3038    0.3933    0.5181 C   0  0  0  0  0  0  0  0  0  0  0  0
   -0.4266    0.8583    0.8870 H   0  0  0  0  0  0  0  0  0  0  0  0
   -2.5731    2.2335    1.3450 O   0  0  0  0  0  0  0  0  0  0  0  0
   -1.6768    2.5164    1.6066 H   0  0  0  0  0  0  0  0  0  0  0  0
   -4.9164    1.0382    0.4427 O   0  0  0  0  0  0  0  0  0  0  0  0
   -4.8024    1.8941    0.9019 H   0  0  0  0  0  0  0  0  0  0  0  0
   -4.8107   -1.4717   -0.8586 N   0  0  0  0  0  0  0  0  0  0  0  0
   -5.1693   -2.5137   -0.3372 O   0  0  0  0  0  0  0  0  0  0  0  0
   -5.4554   -0.9907   -1.7741 O   0  0  0  0  0  0  0  0  0  0  0  0
  1  2  1  0  0  0  0
  1  4  1  0  0  0  0
  1  5  1  0  0  0  0
  1  3  1  0  0  0  0
  5 13  2  0  0  0  0
  5  6  1  0  0  0  0
  6  8  2  0  0  0  0
  6  7  1  0  0  0  0
  8  9  1  0  0  0  0
  8 10  1  0  0  0  0
 10 15  1  0  0  0  0
 10 11  2  0  0  0  0
 11 13  1  0  0  0  0
 11 12  1  0  0  0  0
 13 14  1  0  0  0  0
 15 16  2  0  0  0  0
 15 17  1  0  0  0  0
 17 18  2  0  0  0  0
 17 23  1  0  0  0  0
 18 19  1  0  0  0  0
 18 20  1  0  0  0  0
 20 29  1  0  0  0  0
 20 21  2  0  0  0  0
 21 22  1  0  0  0  0
 21 27  1  0  0  0  0
 22 23  2  0  0  0  0
 22 25  1  0  0  0  0
 23 24  1  0  0  0  0
 25 26  1  0  0  0  0
 27 28  1  0  0  0  0
 29 30  1  0  0  0  0
 29 31  1  0  0  0  0
M  END
