*****
 OpenBabel10181914573D

 58 61  0  0  1  0  0  0  0  0999 V2000
    1.0405   -0.0928   -0.0933 C   0  0  0  0  0  0  0  0  0  0  0  0
    2.5478   -0.0225   -0.0974 C   0  0  0  0  0  0  0  0  0  0  0  0
    3.2829    1.1810   -0.1305 C   0  0  0  0  0  0  0  0  0  0  0  0
    4.6965    1.1189   -0.1145 C   0  0  0  0  0  0  0  0  0  0  0  0
    5.3839   -0.1133   -0.1236 C   0  0  0  0  0  0  0  0  0  0  0  0
    6.8905   -0.1349   -0.1711 C   0  0  0  0  0  0  0  0  0  0  0  0
    7.4729    1.2345   -0.4547 C   0  0  0  0  0  0  0  0  0  0  0  0
    6.7289    2.3051    0.3483 C   0  0  1  0  0  0  0  0  0  0  0  0
    5.3528    2.3357   -0.0796 O   0  0  0  0  0  0  0  0  0  0  0  0
    6.7970    2.0885    1.8742 C   0  0  0  0  0  0  0  0  0  0  0  0
    7.3599    3.6859    0.0345 C   0  0  0  0  0  0  0  0  0  0  0  0
    8.7174    3.6780    0.4924 O   0  0  0  0  0  0  0  0  0  0  0  0
    9.4731    4.7954    0.3084 C   0  0  0  0  0  0  0  0  0  0  0  0
    9.0621    5.9662   -0.3169 C   0  0  0  0  0  0  0  0  0  0  0  0
    9.9662    7.0186   -0.4987 C   0  0  0  0  0  0  0  0  0  0  0  0
   11.2853    6.9371   -0.0358 C   0  0  0  0  0  0  0  0  0  0  0  0
   11.6793    5.7631    0.6221 C   0  0  0  0  0  0  0  0  0  0  0  0
   10.7806    4.7033    0.7848 C   0  0  0  0  0  0  0  0  0  0  0  0
   12.3132    7.9987   -0.3694 C   0  0  0  0  0  0  0  0  0  0  0  0
   12.1602    9.4148    0.2104 C   0  0  1  0  0  0  0  0  0  0  0  0
   13.3241   10.2567   -0.2954 C   0  0  0  0  0  0  0  0  0  0  0  0
   14.5054    9.9477   -0.1956 O   0  0  0  0  0  0  0  0  0  0  0  0
   12.9164   11.3880   -0.9348 N   0  0  0  0  0  0  0  0  0  0  0  0
   11.6008   11.5380   -1.1987 C   0  0  0  0  0  0  0  0  0  0  0  0
   11.1136   12.3590   -1.9573 O   0  0  0  0  0  0  0  0  0  0  0  0
   10.6800   10.3448   -0.3292 S   0  0  0  0  0  0  0  0  0  0  0  0
    4.6537   -1.3182   -0.0485 C   0  0  0  0  0  0  0  0  0  0  0  0
    3.2491   -1.2466   -0.0453 C   0  0  0  0  0  0  0  0  0  0  0  0
    2.4801   -2.3848    0.0136 O   0  0  0  0  0  0  0  0  0  0  0  0
    5.3452   -2.6555    0.0402 C   0  0  0  0  0  0  0  0  0  0  0  0
    2.6434    2.5466   -0.1728 C   0  0  0  0  0  0  0  0  0  0  0  0
    0.5408    0.8725   -0.1532 H   0  0  0  0  0  0  0  0  0  0  0  0
    0.6936   -0.5727    0.8289 H   0  0  0  0  0  0  0  0  0  0  0  0
    0.6933   -0.6781   -0.9523 H   0  0  0  0  0  0  0  0  0  0  0  0
    7.2348   -0.8173   -0.9570 H   0  0  0  0  0  0  0  0  0  0  0  0
    7.2716   -0.5001    0.7898 H   0  0  0  0  0  0  0  0  0  0  0  0
    7.3544    1.4447   -1.5275 H   0  0  0  0  0  0  0  0  0  0  0  0
    8.5482    1.2266   -0.2456 H   0  0  0  0  0  0  0  0  0  0  0  0
    6.2350    1.2094    2.2030 H   0  0  0  0  0  0  0  0  0  0  0  0
    6.3468    2.9397    2.3986 H   0  0  0  0  0  0  0  0  0  0  0  0
    7.8295    1.9772    2.2205 H   0  0  0  0  0  0  0  0  0  0  0  0
    6.7928    4.4758    0.5444 H   0  0  0  0  0  0  0  0  0  0  0  0
    7.3136    3.8776   -1.0458 H   0  0  0  0  0  0  0  0  0  0  0  0
    8.0560    6.0839   -0.7036 H   0  0  0  0  0  0  0  0  0  0  0  0
    9.6154    7.8869   -1.0491 H   0  0  0  0  0  0  0  0  0  0  0  0
   12.7002    5.6382    0.9779 H   0  0  0  0  0  0  0  0  0  0  0  0
   11.1153    3.7862    1.2647 H   0  0  0  0  0  0  0  0  0  0  0  0
   12.4017    8.0424   -1.4636 H   0  0  0  0  0  0  0  0  0  0  0  0
   13.2917    7.6227   -0.0344 H   0  0  0  0  0  0  0  0  0  0  0  0
   12.1849    9.4064    1.3048 H   0  0  0  0  0  0  0  0  0  0  0  0
   13.5871   11.9792   -1.4005 H   0  0  0  0  0  0  0  0  0  0  0  0
    3.0440   -3.1712   -0.0012 H   0  0  0  0  0  0  0  0  0  0  0  0
    6.4320   -2.5850    0.1214 H   0  0  0  0  0  0  0  0  0  0  0  0
    5.1224   -3.2529   -0.8494 H   0  0  0  0  0  0  0  0  0  0  0  0
    5.0086   -3.1904    0.9351 H   0  0  0  0  0  0  0  0  0  0  0  0
    1.5544    2.5352   -0.1840 H   0  0  0  0  0  0  0  0  0  0  0  0
    2.9597    3.0759   -1.0785 H   0  0  0  0  0  0  0  0  0  0  0  0
    2.9424    3.1280    0.7061 H   0  0  0  0  0  0  0  0  0  0  0  0
  1  2  1  0  0  0  0
  1 32  1  0  0  0  0
  1 33  1  0  0  0  0
  1 34  1  0  0  0  0
  2  3  2  0  0  0  0
  2 28  1  0  0  0  0
  3  4  1  0  0  0  0
  3 31  1  0  0  0  0
  4  5  2  0  0  0  0
  4  9  1  0  0  0  0
  5  6  1  0  0  0  0
  5 27  1  0  0  0  0
  6  7  1  0  0  0  0
  6 35  1  0  0  0  0
  6 36  1  0  0  0  0
  7  8  1  0  0  0  0
  7 37  1  0  0  0  0
  7 38  1  0  0  0  0
  8  9  1  0  0  0  0
  8 10  1  1  0  0  0
  8 11  1  0  0  0  0
 10 39  1  0  0  0  0
 10 40  1  0  0  0  0
 10 41  1  0  0  0  0
 11 12  1  0  0  0  0
 11 42  1  0  0  0  0
 11 43  1  0  0  0  0
 12 13  1  0  0  0  0
 13 14  2  0  0  0  0
 13 18  1  0  0  0  0
 14 15  1  0  0  0  0
 14 44  1  0  0  0  0
 15 16  2  0  0  0  0
 15 45  1  0  0  0  0
 16 17  1  0  0  0  0
 16 19  1  0  0  0  0
 17 18  2  0  0  0  0
 17 46  1  0  0  0  0
 18 47  1  0  0  0  0
 19 20  1  0  0  0  0
 19 48  1  0  0  0  0
 19 49  1  0  0  0  0
 20 21  1  0  0  0  0
 20 26  1  0  0  0  0
 20 50  1  1  0  0  0
 21 22  2  0  0  0  0
 21 23  1  0  0  0  0
 23 24  1  0  0  0  0
 23 51  1  0  0  0  0
 24 25  2  0  0  0  0
 24 26  1  0  0  0  0
 27 28  2  0  0  0  0
 27 30  1  0  0  0  0
 28 29  1  0  0  0  0
 29 52  1  0  0  0  0
 30 53  1  0  0  0  0
 30 54  1  0  0  0  0
 30 55  1  0  0  0  0
 31 56  1  0  0  0  0
 31 57  1  0  0  0  0
 31 58  1  0  0  0  0
M  END
