*****
 OpenBabel10181915123D

 58 61  0  0  1  0  0  0  0  0999 V2000
    1.0570   -0.0728   -0.0928 C   0  0  0  0  0  0  0  0  0  0  0  0
    2.5643   -0.0021   -0.0982 C   0  0  0  0  0  0  0  0  0  0  0  0
    3.2990    1.2018   -0.1295 C   0  0  0  0  0  0  0  0  0  0  0  0
    4.7129    1.1400   -0.1137 C   0  0  0  0  0  0  0  0  0  0  0  0
    5.4005   -0.0918   -0.1237 C   0  0  0  0  0  0  0  0  0  0  0  0
    6.9070   -0.1135   -0.1698 C   0  0  0  0  0  0  0  0  0  0  0  0
    7.4880    1.2552   -0.4580 C   0  0  0  0  0  0  0  0  0  0  0  0
    6.7463    2.3269    0.3457 C   0  0  1  0  0  0  0  0  0  0  0  0
    5.3689    2.3574   -0.0784 O   0  0  0  0  0  0  0  0  0  0  0  0
    6.8173    2.1112    1.8719 C   0  0  0  0  0  0  0  0  0  0  0  0
    7.3782    3.7067    0.0303 C   0  0  0  0  0  0  0  0  0  0  0  0
    8.7389    3.6941    0.4784 O   0  0  0  0  0  0  0  0  0  0  0  0
    9.4934    4.8136    0.3021 C   0  0  0  0  0  0  0  0  0  0  0  0
    9.0810    5.9863   -0.3156 C   0  0  0  0  0  0  0  0  0  0  0  0
    9.9853    7.0400   -0.4945 C   0  0  0  0  0  0  0  0  0  0  0  0
   11.3066    6.9572   -0.0342 C   0  0  0  0  0  0  0  0  0  0  0  0
   11.7002    5.7810    0.6193 C   0  0  0  0  0  0  0  0  0  0  0  0
   10.8027    4.7196    0.7769 C   0  0  0  0  0  0  0  0  0  0  0  0
   12.3360    8.0165   -0.3698 C   0  0  0  0  0  0  0  0  0  0  0  0
   12.1814    9.4357    0.2012 C   0  0  1  0  0  0  0  0  0  0  0  0
   13.3502   10.2746   -0.2988 C   0  0  0  0  0  0  0  0  0  0  0  0
   14.5304    9.9672   -0.1922 O   0  0  0  0  0  0  0  0  0  0  0  0
   12.9453   11.4076   -0.9437 N   0  0  0  0  0  0  0  0  0  0  0  0
   11.6287   11.5453   -1.2232 C   0  0  0  0  0  0  0  0  0  0  0  0
   11.1534   12.3558   -2.0018 O   0  0  0  0  0  0  0  0  0  0  0  0
   10.7059   10.3624   -0.3555 S   0  0  0  0  0  0  0  0  0  0  0  0
    4.6707   -1.2971   -0.0510 C   0  0  0  0  0  0  0  0  0  0  0  0
    3.2661   -1.2260   -0.0495 C   0  0  0  0  0  0  0  0  0  0  0  0
    2.4980   -2.3650    0.0043 O   0  0  0  0  0  0  0  0  0  0  0  0
    5.3630   -2.6339    0.0393 C   0  0  0  0  0  0  0  0  0  0  0  0
    2.6586    2.5670   -0.1707 C   0  0  0  0  0  0  0  0  0  0  0  0
    0.5568    0.8922   -0.1497 H   0  0  0  0  0  0  0  0  0  0  0  0
    0.7116   -0.5550    0.8289 H   0  0  0  0  0  0  0  0  0  0  0  0
    0.7088   -0.6566   -0.9524 H   0  0  0  0  0  0  0  0  0  0  0  0
    7.2520   -0.7981   -0.9533 H   0  0  0  0  0  0  0  0  0  0  0  0
    7.2877   -0.4755    0.7926 H   0  0  0  0  0  0  0  0  0  0  0  0
    7.3651    1.4636   -1.5308 H   0  0  0  0  0  0  0  0  0  0  0  0
    8.5640    1.2477   -0.2532 H   0  0  0  0  0  0  0  0  0  0  0  0
    6.2553    1.2328    2.2025 H   0  0  0  0  0  0  0  0  0  0  0  0
    6.3687    2.9631    2.3965 H   0  0  0  0  0  0  0  0  0  0  0  0
    7.8505    1.9996    2.2161 H   0  0  0  0  0  0  0  0  0  0  0  0
    6.8166    4.4968    0.5456 H   0  0  0  0  0  0  0  0  0  0  0  0
    7.3255    3.9005   -1.0493 H   0  0  0  0  0  0  0  0  0  0  0  0
    8.0742    6.1068   -0.7011 H   0  0  0  0  0  0  0  0  0  0  0  0
    9.6350    7.9080   -1.0443 H   0  0  0  0  0  0  0  0  0  0  0  0
   12.7208    5.6537    0.9752 H   0  0  0  0  0  0  0  0  0  0  0  0
   11.1367    3.7995    1.2514 H   0  0  0  0  0  0  0  0  0  0  0  0
   12.4292    8.0533   -1.4638 H   0  0  0  0  0  0  0  0  0  0  0  0
   13.3125    7.6418   -0.0280 H   0  0  0  0  0  0  0  0  0  0  0  0
   12.1955    9.4325    1.2954 H   0  0  0  0  0  0  0  0  0  0  0  0
   13.6173   12.0011   -1.4038 H   0  0  0  0  0  0  0  0  0  0  0  0
    3.0622   -3.1508   -0.0247 H   0  0  0  0  0  0  0  0  0  0  0  0
    6.4498   -2.5630    0.1206 H   0  0  0  0  0  0  0  0  0  0  0  0
    5.1410   -3.2327   -0.8496 H   0  0  0  0  0  0  0  0  0  0  0  0
    5.0263   -3.1676    0.9348 H   0  0  0  0  0  0  0  0  0  0  0  0
    1.5696    2.5547   -0.1807 H   0  0  0  0  0  0  0  0  0  0  0  0
    2.9734    3.0965   -1.0768 H   0  0  0  0  0  0  0  0  0  0  0  0
    2.9581    3.1485    0.7079 H   0  0  0  0  0  0  0  0  0  0  0  0
  1  2  1  0  0  0  0
  1 32  1  0  0  0  0
  1 33  1  0  0  0  0
  1 34  1  0  0  0  0
  2  3  2  0  0  0  0
  2 28  1  0  0  0  0
  3  4  1  0  0  0  0
  3 31  1  0  0  0  0
  4  5  2  0  0  0  0
  4  9  1  0  0  0  0
  5  6  1  0  0  0  0
  5 27  1  0  0  0  0
  6  7  1  0  0  0  0
  6 35  1  0  0  0  0
  6 36  1  0  0  0  0
  7  8  1  0  0  0  0
  7 37  1  0  0  0  0
  7 38  1  0  0  0  0
  8  9  1  0  0  0  0
  8 10  1  1  0  0  0
  8 11  1  0  0  0  0
 10 39  1  0  0  0  0
 10 40  1  0  0  0  0
 10 41  1  0  0  0  0
 11 12  1  0  0  0  0
 11 42  1  0  0  0  0
 11 43  1  0  0  0  0
 12 13  1  0  0  0  0
 13 14  2  0  0  0  0
 13 18  1  0  0  0  0
 14 15  1  0  0  0  0
 14 44  1  0  0  0  0
 15 16  2  0  0  0  0
 15 45  1  0  0  0  0
 16 17  1  0  0  0  0
 16 19  1  0  0  0  0
 17 18  2  0  0  0  0
 17 46  1  0  0  0  0
 18 47  1  0  0  0  0
 19 20  1  0  0  0  0
 19 48  1  0  0  0  0
 19 49  1  0  0  0  0
 20 21  1  0  0  0  0
 20 26  1  0  0  0  0
 20 50  1  1  0  0  0
 21 22  2  0  0  0  0
 21 23  1  0  0  0  0
 23 24  1  0  0  0  0
 23 51  1  0  0  0  0
 24 25  2  0  0  0  0
 24 26  1  0  0  0  0
 27 28  2  0  0  0  0
 27 30  1  0  0  0  0
 28 29  1  0  0  0  0
 29 52  1  0  0  0  0
 30 53  1  0  0  0  0
 30 54  1  0  0  0  0
 30 55  1  0  0  0  0
 31 56  1  0  0  0  0
 31 57  1  0  0  0  0
 31 58  1  0  0  0  0
M  END
