troglitazone
 OpenBabel10181908563D
@<TRIPOS>DICT
 58 61  0  0  1  0  0  0  0  0999 V2000
    1.8136    0.4274    0.8912 C   0  0  0  0  0  0  0  0  0  0  0  0
    1.8558   -0.5122    0.3408 H   0  0  0  0  0  0  0  0  0  0  0  0
    0.9024    0.9414    0.5852 H   0  0  0  0  0  0  0  0  0  0  0  0
    1.7871    0.2380    1.9638 H   0  0  0  0  0  0  0  0  0  0  0  0
    3.0588    1.2633    0.5717 C   0  0  0  0  0  0  0  0  0  0  0  0
    4.3108    0.6607    0.3768 C   0  0  0  0  0  0  0  0  0  0  0  0
    5.4096    1.4665    0.0353 C   0  0  0  0  0  0  0  0  0  0  0  0
    5.3015    2.8622   -0.0911 C   0  0  0  0  0  0  0  0  0  0  0  0
    6.5220    3.7016   -0.4837 C   0  0  0  0  0  0  0  0  0  0  0  0
    7.0313    4.0628    0.4104 H   0  0  0  0  0  0  0  0  0  0  0  0
    6.2364    4.5582   -1.0940 H   0  0  0  0  0  0  0  0  0  0  0  0
    7.4584    2.8215   -1.3204 C   0  0  0  0  0  0  0  0  0  0  0  0
    8.3401    3.3936   -1.6128 H   0  0  0  0  0  0  0  0  0  0  0  0
    6.9371    2.5333   -2.2349 H   0  0  0  0  0  0  0  0  0  0  0  0
    7.8629    1.5527   -0.5428 C   0  0  1  0  0  0  0  0  0  0  0  0
    6.6391    0.8427   -0.2035 O   0  0  0  0  0  0  0  0  0  0  0  0
    8.7076    0.6565   -1.4709 C   0  0  0  0  0  0  0  0  0  0  0  0
    8.1409    0.4077   -2.3701 H   0  0  0  0  0  0  0  0  0  0  0  0
    8.9693   -0.2724   -0.9619 H   0  0  0  0  0  0  0  0  0  0  0  0
    9.6250    1.1661   -1.7671 H   0  0  0  0  0  0  0  0  0  0  0  0
    8.6460    1.8287    0.7677 C   0  0  0  0  0  0  0  0  0  0  0  0
    9.1303    0.9210    1.1270 H   0  0  0  0  0  0  0  0  0  0  0  0
    7.9597    2.1828    1.5386 H   0  0  0  0  0  0  0  0  0  0  0  0
    9.6164    2.8788    0.4878 O   0  0  0  0  0  0  0  0  0  0  0  0
   10.9832    2.7977    0.3251 C   0  0  0  0  0  0  0  0  0  0  0  0
   11.5883    3.7933   -0.4354 C   0  0  0  0  0  0  0  0  0  0  0  0
   11.0032    4.5614   -0.8703 H   0  0  0  0  0  0  0  0  0  0  0  0
   12.9658    3.7740   -0.6288 C   0  0  0  0  0  0  0  0  0  0  0  0
   13.4006    4.5328   -1.2233 H   0  0  0  0  0  0  0  0  0  0  0  0
   13.7560    2.7735   -0.0475 C   0  0  0  0  0  0  0  0  0  0  0  0
   13.1271    1.7785    0.7101 C   0  0  0  0  0  0  0  0  0  0  0  0
   13.7056    1.0064    1.1484 H   0  0  0  0  0  0  0  0  0  0  0  0
   11.7459    1.7813    0.8984 C   0  0  0  0  0  0  0  0  0  0  0  0
   11.2907    1.0207    1.4775 H   0  0  0  0  0  0  0  0  0  0  0  0
   15.2770    2.6929   -0.2272 C   0  0  0  0  0  0  0  0  0  0  0  0
   15.4944    1.9696   -1.0152 H   0  0  0  0  0  0  0  0  0  0  0  0
   15.7318    2.3361    0.6993 H   0  0  0  0  0  0  0  0  0  0  0  0
   15.9043    4.0573   -0.6071 C   0  0  2  0  0  0  0  0  0  0  0  0
   15.5033    4.4714   -1.5226 H   0  0  0  0  0  0  0  0  0  0  0  0
   17.4185    3.9335   -0.6825 C   0  0  0  0  0  0  0  0  0  0  0  0
   18.0245    3.2397   -1.4754 O   0  0  0  0  0  0  0  0  0  0  0  0
   18.1022    4.7113    0.2195 N   0  0  0  0  0  0  0  0  0  0  0  0
   19.1355    4.7287    0.2569 H   0  0  0  0  0  0  0  0  0  0  0  0
   17.3301    5.4687    1.0734 C   0  0  0  0  0  0  0  0  0  0  0  0
   17.8279    6.2187    1.9143 O   0  0  0  0  0  0  0  0  0  0  0  0
   15.6482    5.2136    0.7917 S   0  0  0  0  0  0  0  0  0  0  0  0
    4.0664    3.4724    0.1619 C   0  0  0  0  0  0  0  0  0  0  0  0
    2.9640    2.6618    0.4792 C   0  0  0  0  0  0  0  0  0  0  0  0
    1.7431    3.2563    0.7069 O   0  0  0  0  0  0  0  0  0  0  0  0
    1.8108    4.2277    0.6143 H   0  0  0  0  0  0  0  0  0  0  0  0
    3.9260    4.9895    0.0728 C   0  0  0  0  0  0  0  0  0  0  0  0
    4.7651    5.4465    0.5937 H   0  0  0  0  0  0  0  0  0  0  0  0
    3.0066    5.3371    0.5379 H   0  0  0  0  0  0  0  0  0  0  0  0
    3.9361    5.2670   -0.9793 H   0  0  0  0  0  0  0  0  0  0  0  0
    4.4927   -0.8505    0.4995 C   0  0  0  0  0  0  0  0  0  0  0  0
    3.8492   -1.2367    1.2888 H   0  0  0  0  0  0  0  0  0  0  0  0
    5.5217   -1.0934    0.7617 H   0  0  0  0  0  0  0  0  0  0  0  0
    4.2349   -1.3002   -0.4597 H   0  0  0  0  0  0  0  0  0  0  0  0
  1  2  1  0  0  0  0
  1  3  1  0  0  0  0
  1  4  1  0  0  0  0
  1  5  1  0  0  0  0
  5 48  2  0  0  0  0
  5  6  1  0  0  0  0
  6 55  1  0  0  0  0
  6  7  2  0  0  0  0
  7  8  1  0  0  0  0
  7 16  1  0  0  0  0
  8  9  1  0  0  0  0
  8 47  2  0  0  0  0
  9 11  1  0  0  0  0
  9 12  1  0  0  0  0
  9 10  1  0  0  0  0
 12 13  1  0  0  0  0
 12 14  1  0  0  0  0
 12 15  1  0  0  0  0
 15 16  1  0  0  0  0
 15 17  1  6  0  0  0
 15 21  1  0  0  0  0
 17 18  1  0  0  0  0
 17 19  1  0  0  0  0
 17 20  1  0  0  0  0
 21 23  1  0  0  0  0
 21 24  1  0  0  0  0
 21 22  1  0  0  0  0
 24 25  1  0  0  0  0
 25 33  2  0  0  0  0
 25 26  1  0  0  0  0
 26 27  1  0  0  0  0
 26 28  2  0  0  0  0
 28 29  1  0  0  0  0
 28 30  1  0  0  0  0
 30 31  2  0  0  0  0
 30 35  1  0  0  0  0
 31 33  1  0  0  0  0
 31 32  1  0  0  0  0
 33 34  1  0  0  0  0
 35 36  1  0  0  0  0
 35 38  1  0  0  0  0
 35 37  1  0  0  0  0
 38 39  1  6  0  0  0
 38 40  1  0  0  0  0
 38 46  1  0  0  0  0
 40 41  2  0  0  0  0
 40 42  1  0  0  0  0
 42 44  1  0  0  0  0
 42 43  1  0  0  0  0
 44 46  1  0  0  0  0
 44 45  2  0  0  0  0
 47 48  1  0  0  0  0
 47 51  1  0  0  0  0
 48 49  1  0  0  0  0
 49 50  1  0  0  0  0
 51 53  1  0  0  0  0
 51 54  1  0  0  0  0
 51 52  1  0  0  0  0
 55 56  1  0  0  0  0
 55 57  1  0  0  0  0
 55 58  1  0  0  0  0
M  END
