valproic_acid
 OpenBabel10181914253D
@<TRIPOS>DICT
 26 25  0  0  0  0  0  0  0  0999 V2000
    3.7199   -0.1799    0.1187 C   0  0  0  0  0  0  0  0  0  0  0  0
    4.2987   -0.9875    0.5672 H   0  0  0  0  0  0  0  0  0  0  0  0
    4.0576    0.7717    0.5319 H   0  0  0  0  0  0  0  0  0  0  0  0
    3.8792   -0.1843   -0.9600 H   0  0  0  0  0  0  0  0  0  0  0  0
    2.2337   -0.3833    0.4297 C   0  0  0  0  0  0  0  0  0  0  0  0
    2.1036   -0.3749    1.5131 H   0  0  0  0  0  0  0  0  0  0  0  0
    1.9276   -1.3559    0.0443 H   0  0  0  0  0  0  0  0  0  0  0  0
    1.3735    0.7291   -0.1972 C   0  0  0  0  0  0  0  0  0  0  0  0
    1.4411    0.6725   -1.2847 H   0  0  0  0  0  0  0  0  0  0  0  0
    1.7845    1.6896    0.1180 H   0  0  0  0  0  0  0  0  0  0  0  0
   -0.1085    0.6785    0.2307 C   0  0  0  0  0  0  0  0  0  0  0  0
   -0.1308    0.5621    1.3160 H   0  0  0  0  0  0  0  0  0  0  0  0
   -0.8438   -0.5261   -0.3888 C   0  0  0  0  0  0  0  0  0  0  0  0
   -0.3162   -1.4449   -0.1294 H   0  0  0  0  0  0  0  0  0  0  0  0
   -0.8543   -0.4297   -1.4763 H   0  0  0  0  0  0  0  0  0  0  0  0
   -2.2876   -0.6377    0.1255 C   0  0  0  0  0  0  0  0  0  0  0  0
   -2.8803    0.2086   -0.2312 H   0  0  0  0  0  0  0  0  0  0  0  0
   -2.2867   -0.6376    1.2178 H   0  0  0  0  0  0  0  0  0  0  0  0
   -2.9356   -1.9362   -0.3639 C   0  0  0  0  0  0  0  0  0  0  0  0
   -2.9681   -1.9453   -1.4543 H   0  0  0  0  0  0  0  0  0  0  0  0
   -3.9530   -2.0027    0.0263 H   0  0  0  0  0  0  0  0  0  0  0  0
   -2.3628   -2.7955   -0.0077 H   0  0  0  0  0  0  0  0  0  0  0  0
   -0.8112    1.9964   -0.1288 C   0  0  0  0  0  0  0  0  0  0  0  0
   -0.8628    2.4531   -1.2715 O   0  0  0  0  0  0  0  0  0  0  0  0
   -1.3841    2.6219    0.9445 O   0  0  0  0  0  0  0  0  0  0  0  0
   -1.8336    3.4380    0.7101 H   0  0  0  0  0  0  0  0  0  0  0  0
  1  3  1  0  0  0  0
  1  4  1  0  0  0  0
  1  2  1  0  0  0  0
  1  5  1  0  0  0  0
  5  7  1  0  0  0  0
  5  6  1  0  0  0  0
  5  8  1  0  0  0  0
  8  9  1  0  0  0  0
  8 10  1  0  0  0  0
  8 11  1  0  0  0  0
 11 13  1  0  0  0  0
 11 23  1  0  0  0  0
 11 12  1  0  0  0  0
 13 14  1  0  0  0  0
 13 15  1  0  0  0  0
 13 16  1  0  0  0  0
 16 19  1  0  0  0  0
 16 17  1  0  0  0  0
 16 18  1  0  0  0  0
 19 20  1  0  0  0  0
 19 21  1  0  0  0  0
 19 22  1  0  0  0  0
 23 24  2  0  0  0  0
 23 25  1  0  0  0  0
 25 26  1  0  0  0  0
M  END
