*****
 OpenBabel10181915123D

 26 25  0  0  0  0  0  0  0  0999 V2000
    0.6874    0.1064   -0.2486 C   0  0  0  0  0  0  0  0  0  0  0  0
    2.1995   -0.0057   -0.1039 C   0  0  0  0  0  0  0  0  0  0  0  0
    2.8662   -0.2289   -1.4636 C   0  0  0  0  0  0  0  0  0  0  0  0
    4.4087   -0.3044   -1.4197 C   0  0  0  0  0  0  0  0  0  0  0  0
    4.9596   -1.4138   -0.5004 C   0  0  0  0  0  0  0  0  0  0  0  0
    4.5874   -2.8351   -0.9300 C   0  0  0  0  0  0  0  0  0  0  0  0
    5.2134   -3.8732   -0.0108 C   0  0  0  0  0  0  0  0  0  0  0  0
    4.9489   -0.4374   -2.8418 C   0  0  0  0  0  0  0  0  0  0  0  0
    4.2583   -0.5698   -3.8409 O   0  0  0  0  0  0  0  0  0  0  0  0
    6.2972   -0.3676   -2.9212 O   0  0  0  0  0  0  0  0  0  0  0  0
    0.2188    0.2342    0.7323 H   0  0  0  0  0  0  0  0  0  0  0  0
    0.2717   -0.7964   -0.7074 H   0  0  0  0  0  0  0  0  0  0  0  0
    0.4141    0.9648   -0.8707 H   0  0  0  0  0  0  0  0  0  0  0  0
    2.4196   -0.8360    0.5742 H   0  0  0  0  0  0  0  0  0  0  0  0
    2.5871    0.9089    0.3577 H   0  0  0  0  0  0  0  0  0  0  0  0
    2.5781    0.5969   -2.1274 H   0  0  0  0  0  0  0  0  0  0  0  0
    2.4575   -1.1369   -1.9220 H   0  0  0  0  0  0  0  0  0  0  0  0
    4.7692    0.6636   -1.0434 H   0  0  0  0  0  0  0  0  0  0  0  0
    4.6171   -1.2443    0.5272 H   0  0  0  0  0  0  0  0  0  0  0  0
    6.0536   -1.3397   -0.4512 H   0  0  0  0  0  0  0  0  0  0  0  0
    4.9317   -3.0222   -1.9536 H   0  0  0  0  0  0  0  0  0  0  0  0
    3.5002   -2.9656   -0.9212 H   0  0  0  0  0  0  0  0  0  0  0  0
    6.3044   -3.7899   -0.0106 H   0  0  0  0  0  0  0  0  0  0  0  0
    4.9513   -4.8820   -0.3452 H   0  0  0  0  0  0  0  0  0  0  0  0
    4.8571   -3.7518    1.0174 H   0  0  0  0  0  0  0  0  0  0  0  0
    6.7479   -0.2328   -2.0683 H   0  0  0  0  0  0  0  0  0  0  0  0
  1  2  1  0  0  0  0
  1 11  1  0  0  0  0
  1 12  1  0  0  0  0
  1 13  1  0  0  0  0
  2  3  1  0  0  0  0
  2 14  1  0  0  0  0
  2 15  1  0  0  0  0
  3  4  1  0  0  0  0
  3 16  1  0  0  0  0
  3 17  1  0  0  0  0
  4  5  1  0  0  0  0
  4  8  1  0  0  0  0
  4 18  1  0  0  0  0
  5  6  1  0  0  0  0
  5 19  1  0  0  0  0
  5 20  1  0  0  0  0
  6  7  1  0  0  0  0
  6 21  1  0  0  0  0
  6 22  1  0  0  0  0
  7 23  1  0  0  0  0
  7 24  1  0  0  0  0
  7 25  1  0  0  0  0
  8  9  2  0  0  0  0
  8 10  1  0  0  0  0
 10 26  1  0  0  0  0
M  END
