ximelagatran
 OpenBabel10181914253D
@<TRIPOS>DICT
 71 73  0  0  1  0  0  0  0  0999 V2000
   -4.4858    4.0513   -0.8352 C   0  0  0  0  0  0  0  0  0  0  0  0
   -4.1986    5.0974   -0.9498 H   0  0  0  0  0  0  0  0  0  0  0  0
   -5.5627    3.9542   -0.9868 H   0  0  0  0  0  0  0  0  0  0  0  0
   -3.9543    3.4514   -1.5742 H   0  0  0  0  0  0  0  0  0  0  0  0
   -4.1146    3.5844    0.5748 C   0  0  0  0  0  0  0  0  0  0  0  0
   -4.6063    4.2138    1.3179 H   0  0  0  0  0  0  0  0  0  0  0  0
   -3.0324    3.6148    0.7036 H   0  0  0  0  0  0  0  0  0  0  0  0
   -4.5945    2.2220    0.6764 O   0  0  0  0  0  0  0  0  0  0  0  0
   -4.5331    1.4920    1.8033 C   0  0  0  0  0  0  0  0  0  0  0  0
   -4.0517    1.9407    2.8455 O   0  0  0  0  0  0  0  0  0  0  0  0
   -5.0850    0.0723    1.7403 C   0  0  0  0  0  0  0  0  0  0  0  0
   -5.6794   -0.0406    0.8338 H   0  0  0  0  0  0  0  0  0  0  0  0
   -5.7422   -0.0850    2.5929 H   0  0  0  0  0  0  0  0  0  0  0  0
   -4.0200   -0.9560    1.7585 N   0  3  0  0  0  0  0  0  0  0  0  0
   -4.4435   -1.8712    1.8120 H   0  0  0  0  0  0  0  0  0  0  0  0
   -3.1756   -0.8817    0.5393 C   0  0  2  0  0  0  0  0  0  0  0  0
   -3.5549   -0.1229   -0.1460 H   0  0  0  0  0  0  0  0  0  0  0  0
   -3.1432   -2.2056   -0.2647 C   0  0  0  0  0  0  0  0  0  0  0  0
   -2.4009   -2.0863   -1.0562 H   0  0  0  0  0  0  0  0  0  0  0  0
   -4.5112   -2.4130   -0.9484 C   0  0  0  0  0  0  0  0  0  0  0  0
   -4.7339   -1.5548   -1.5840 H   0  0  0  0  0  0  0  0  0  0  0  0
   -5.2908   -2.4909   -0.1898 H   0  0  0  0  0  0  0  0  0  0  0  0
   -4.5393   -3.6814   -1.8116 C   0  0  0  0  0  0  0  0  0  0  0  0
   -3.8335   -3.5733   -2.6364 H   0  0  0  0  0  0  0  0  0  0  0  0
   -5.5405   -3.8115   -2.2239 H   0  0  0  0  0  0  0  0  0  0  0  0
   -4.1695   -4.9184   -0.9848 C   0  0  0  0  0  0  0  0  0  0  0  0
   -4.1361   -5.7918   -1.6362 H   0  0  0  0  0  0  0  0  0  0  0  0
   -4.9336   -5.0848   -0.2217 H   0  0  0  0  0  0  0  0  0  0  0  0
   -2.8052   -4.7335   -0.3082 C   0  0  0  0  0  0  0  0  0  0  0  0
   -2.0341   -4.6710   -1.0776 H   0  0  0  0  0  0  0  0  0  0  0  0
   -2.5955   -5.5999    0.3198 H   0  0  0  0  0  0  0  0  0  0  0  0
   -2.7586   -3.4608    0.5521 C   0  0  0  0  0  0  0  0  0  0  0  0
   -3.4433   -3.5820    1.3931 H   0  0  0  0  0  0  0  0  0  0  0  0
   -1.7463   -3.3548    0.9411 H   0  0  0  0  0  0  0  0  0  0  0  0
   -1.7591   -0.5221    0.9699 C   0  0  0  0  0  0  0  0  0  0  0  0
   -1.2020   -1.0298    1.9316 O   0  0  0  0  0  0  0  0  0  0  0  0
   -1.0810    0.3924    0.2123 N   0  0  0  0  0  0  0  0  0  0  0  0
   -1.4628    1.1989   -0.9557 C   0  0  0  0  0  0  0  0  0  0  0  0
   -2.3476    1.7995   -0.8050 H   0  0  0  0  0  0  0  0  0  0  0  0
   -1.4681    0.6301   -1.8757 H   0  0  0  0  0  0  0  0  0  0  0  0
   -0.1326    1.9892   -0.7268 C   0  0  0  0  0  0  0  0  0  0  0  0
   -0.2997    2.9422   -0.2418 H   0  0  0  0  0  0  0  0  0  0  0  0
    0.4913    2.0585   -1.6079 H   0  0  0  0  0  0  0  0  0  0  0  0
    0.2979    0.8794    0.2833 C   0  0  2  0  0  0  0  0  0  0  0  0
    0.6216    1.2442    1.2495 H   0  0  0  0  0  0  0  0  0  0  0  0
    1.2901   -0.0904   -0.3372 C   0  0  0  0  0  0  0  0  0  0  0  0
    1.0056   -0.8332   -1.2661 O   0  0  0  0  0  0  0  0  0  0  0  0
    2.5591   -0.0618    0.1696 N   0  0  0  0  0  0  0  0  0  0  0  0
    2.7586    0.5398    0.9562 H   0  0  0  0  0  0  0  0  0  0  0  0
    3.6604   -0.8696   -0.3570 C   0  0  0  0  0  0  0  0  0  0  0  0
    3.5077   -1.0711   -1.4086 H   0  0  0  0  0  0  0  0  0  0  0  0
    3.7494   -1.7683    0.2375 H   0  0  0  0  0  0  0  0  0  0  0  0
    4.9106   -0.0239   -0.2043 C   0  0  0  0  0  0  0  0  0  0  0  0
    5.9673   -0.4758    0.5829 C   0  0  0  0  0  0  0  0  0  0  0  0
    5.8927   -1.4057    1.0852 H   0  0  0  0  0  0  0  0  0  0  0  0
    7.1241    0.2818    0.7157 C   0  0  0  0  0  0  0  0  0  0  0  0
    7.9063   -0.0898    1.3257 H   0  0  0  0  0  0  0  0  0  0  0  0
    7.2581    1.5171    0.0609 C   0  0  0  0  0  0  0  0  0  0  0  0
    6.1838    1.9651   -0.7250 C   0  0  0  0  0  0  0  0  0  0  0  0
    6.2466    2.8920   -1.2316 H   0  0  0  0  0  0  0  0  0  0  0  0
    5.0298    1.2024   -0.8573 C   0  0  0  0  0  0  0  0  0  0  0  0
    4.2362    1.5593   -1.4639 H   0  0  0  0  0  0  0  0  0  0  0  0
    8.4780    2.3202    0.1879 C   0  0  2  0  0  0  0  0  0  0  0  0
    8.5096    3.5759   -0.0903 N   0  0  0  0  0  0  0  0  0  0  0  0
    9.6879    4.2426    0.0584 O   0  0  0  0  0  0  0  0  0  0  0  0
   10.3374    3.5924    0.3928 H   0  0  0  0  0  0  0  0  0  0  0  0
    9.6415    1.6601    0.6237 N   0  0  0  0  0  0  0  0  0  0  0  0
   10.3621    2.2719    1.0338 H   0  0  0  0  0  0  0  0  0  0  0  0
    9.4895    0.7634    1.1083 H   0  0  0  0  0  0  0  0  0  0  0  0
   -3.3753   -0.7125    2.5901 H   0  0  0  0  0  0  0  0  0  0  0  0
    7.6643    4.0651   -0.4175 H   0  0  0  0  0  0  0  0  0  0  0  0
  1  2  1  0  0  0  0
  1  3  1  0  0  0  0
  1  4  1  0  0  0  0
  1  5  1  0  0  0  0
  5  6  1  0  0  0  0
  5  8  1  0  0  0  0
  5  7  1  0  0  0  0
  8  9  1  0  0  0  0
  9 10  2  0  0  0  0
  9 11  1  0  0  0  0
 11 12  1  0  0  0  0
 11 13  1  0  0  0  0
 11 14  1  0  0  0  0
 14 15  1  0  0  0  0
 14 16  1  0  0  0  0
 14 70  1  0  0  0  0
 16 35  1  0  0  0  0
 16 17  1  6  0  0  0
 16 18  1  0  0  0  0
 18 20  1  0  0  0  0
 18 19  1  0  0  0  0
 18 32  1  0  0  0  0
 20 21  1  0  0  0  0
 20 22  1  0  0  0  0
 20 23  1  0  0  0  0
 23 24  1  0  0  0  0
 23 25  1  0  0  0  0
 23 26  1  0  0  0  0
 26 27  1  0  0  0  0
 26 28  1  0  0  0  0
 26 29  1  0  0  0  0
 29 30  1  0  0  0  0
 29 31  1  0  0  0  0
 29 32  1  0  0  0  0
 32 34  1  0  0  0  0
 32 33  1  0  0  0  0
 35 36  2  0  0  0  0
 35 37  1  0  0  0  0
 37 44  1  0  0  0  0
 37 38  1  0  0  0  0
 38 40  1  0  0  0  0
 38 39  1  0  0  0  0
 38 41  1  0  0  0  0
 41 44  1  0  0  0  0
 41 42  1  0  0  0  0
 41 43  1  0  0  0  0
 44 45  1  1  0  0  0
 44 46  1  0  0  0  0
 46 47  2  0  0  0  0
 46 48  1  0  0  0  0
 48 49  1  0  0  0  0
 48 50  1  0  0  0  0
 50 52  1  0  0  0  0
 50 51  1  0  0  0  0
 50 53  1  0  0  0  0
 53 54  2  0  0  0  0
 53 61  1  0  0  0  0
 54 55  1  0  0  0  0
 54 56  1  0  0  0  0
 56 57  1  0  0  0  0
 56 58  2  0  0  0  0
 58 59  1  0  0  0  0
 58 63  1  0  0  0  0
 59 61  2  0  0  0  0
 59 60  1  0  0  0  0
 61 62  1  0  0  0  0
 63 67  1  6  0  0  0
 63 64  1  0  0  0  0
 64 65  1  0  0  0  0
 64 71  1  0  0  0  0
 65 66  1  0  0  0  0
 67 69  1  0  0  0  0
 67 68  1  0  0  0  0
M  CHG  1  14   1
M  END
